#--------------------------------------------------------------------------------- 
# Heading
#--------------------------------------------------------------------------------- 
#
wipe
model basic -ndm 3 -ndf 6
#
logFile error.txt
#
#
#
#--------------------------------------------------------------------------------- 
# Nodes
#--------------------------------------------------------------------------------- 
#
node 1 0.0 0.0 0.0
node 2 0.0 0.0 3.0
node 3 14.0 0.0 0.0
node 4 14.0 0.0 3.0
node 5 14.0 10.0 0.0
node 6 14.0 10.0 3.0
node 7 0.0 10.0 0.0
node 8 0.0 10.0 3.0
node 9 0.0 0.0 6.0
node 10 14.0 0.0 6.0
node 11 14.0 10.0 6.0
node 12 0.0 10.0 6.0
node 13 0.0 0.0 9.0
node 14 14.0 0.0 9.0
node 15 14.0 10.0 9.0
node 16 0.0 10.0 9.0
node 17 0.0 0.0 12.0
node 18 14.0 0.0 12.0
node 19 14.0 10.0 12.0
node 20 0.0 10.0 12.0
# ... 24 like lines cut
#
#
#--------------------------------------------------------------------------------- 
# Displacements
#--------------------------------------------------------------------------------- 
#
fix 1 1 1 1 1 1 1
fix 3 1 1 1 1 1 1
fix 5 1 1 1 1 1 1
fix 7 1 1 1 1 1 1
#
#
#--------------------------------------------------------------------------------- 
# Materials
#--------------------------------------------------------------------------------- 
#
nDMaterial ElasticIsotropic 1 7000000000.0 0.42 500
#
#--------------------------------------------------------------------------------- 
# Materials
#--------------------------------------------------------------------------------- 
#
nDMaterial ElasticIsotropic 2 7000000000.0 0.42 500
#
#--------------------------------------------------------------------------------- 
# Materials
#--------------------------------------------------------------------------------- 
#
nDMaterial ElasticIsotropic 3 7000000000.0 0.42 500
#
#--------------------------------------------------------------------------------- 
# Beam elements
#--------------------------------------------------------------------------------- 
#
geomTransf Corotational 1 0.0 2.999999999979761 1.1019615310039722e-05 
element elasticBeamColumn 1 1 2 0.011600000000000013 7000000000.0 2464788732.3943663 0.00024389 0.0001627866666666667 0.0001627866666666667 1 5.800000000000007 
geomTransf Corotational 2 0.0 2.999999999979761 1.1019615310039722e-05 
element elasticBeamColumn 2 3 4 0.011600000000000013 7000000000.0 2464788732.3943663 0.00024389 0.0001627866666666667 0.0001627866666666667 2 5.800000000000007 
geomTransf Corotational 3 0.0 2.999999999979761 1.1019615310039722e-05 
element elasticBeamColumn 3 5 6 0.011600000000000013 7000000000.0 2464788732.3943663 0.00024389 0.0001627866666666667 0.0001627866666666667 3 5.800000000000007 
geomTransf Corotational 4 0.0 2.999999999979761 1.1019615310039722e-05 
element elasticBeamColumn 4 7 8 0.011600000000000013 7000000000.0 2464788732.3943663 0.00024389 0.0001627866666666667 0.0001627866666666667 4 5.800000000000007 
geomTransf Corotational 5 0.0 2.999999999979761 1.1019615310039722e-05 
element elasticBeamColumn 5 2 9 0.011600000000000013 7000000000.0 2464788732.3943663 0.00024389 0.0001627866666666667 0.0001627866666666667 5 5.800000000000007 
geomTransf Corotational 6 0.0 2.999999999979761 1.1019615310039722e-05 
element elasticBeamColumn 6 4 10 0.011600000000000013 7000000000.0 2464788732.3943663 0.00024389 0.0001627866666666667 0.0001627866666666667 6 5.800000000000007 
geomTransf Corotational 7 0.0 2.999999999979761 1.1019615310039722e-05 
element elasticBeamColumn 7 6 11 0.011600000000000013 7000000000.0 2464788732.3943663 0.00024389 0.0001627866666666667 0.0001627866666666667 7 5.800000000000007 
geomTransf Corotational 8 0.0 2.999999999979761 1.1019615310039722e-05 
element elasticBeamColumn 8 8 12 0.011600000000000013 7000000000.0 2464788732.3943663 0.00024389 0.0001627866666666667 0.0001627866666666667 8 5.800000000000007 
geomTransf Corotational 9 0.0 2.999999999979761 1.1019615310039722e-05 
element elasticBeamColumn 9 9 13 0.011600000000000013 7000000000.0 2464788732.3943663 0.00024389 0.0001627866666666667 0.0001627866666666667 9 5.800000000000007 
geomTransf Corotational 10 0.0 2.999999999979761 1.1019615310039722e-05 
element elasticBeamColumn 10 10 14 0.011600000000000013 7000000000.0 2464788732.3943663 0.00024389 0.0001627866666666667 0.0001627866666666667 10 5.800000000000007 
geomTransf Corotational 11 0.0 2.999999999979761 1.1019615310039722e-05 
element elasticBeamColumn 11 11 15 0.011600000000000013 7000000000.0 2464788732.3943663 0.00024389 0.0001627866666666667 0.0001627866666666667 11 5.800000000000007 
geomTransf Corotational 12 0.0 2.999999999979761 1.1019615310039722e-05 
element elasticBeamColumn 12 12 16 0.011600000000000013 7000000000.0 2464788732.3943663 0.00024389 0.0001627866666666667 0.0001627866666666667 12 5.800000000000007 
geomTransf Corotational 13 0.0 2.999999999979761 1.1019615310039722e-05 
element elasticBeamColumn 13 13 17 0.011600000000000013 7000000000.0 2464788732.3943663 0.00024389 0.0001627866666666667 0.0001627866666666667 13 5.800000000000007 
geomTransf Corotational 14 0.0 2.999999999979761 1.1019615310039722e-05 
element elasticBeamColumn 14 14 18 0.011600000000000013 7000000000.0 2464788732.3943663 0.00024389 0.0001627866666666667 0.0001627866666666667 14 5.800000000000007 
geomTransf Corotational 15 0.0 2.999999999979761 1.1019615310039722e-05 
element elasticBeamColumn 15 15 19 0.011600000000000013 7000000000.0 2464788732.3943663 0.00024389 0.0001627866666666667 0.0001627866666666667 15 5.800000000000007 
geomTransf Corotational 16 0.0 2.999999999979761 1.1019615310039722e-05 
element elasticBeamColumn 16 16 20 0.011600000000000013 7000000000.0 2464788732.3943663 0.00024389 0.0001627866666666667 0.0001627866666666667 16 5.800000000000007 
geomTransf Corotational 17 0.0 2.999999999979761 1.1019615310039722e-05 
element elasticBeamColumn 17 17 21 0.011600000000000013 7000000000.0 2464788732.3943663 0.00024389 0.0001627866666666667 0.0001627866666666667 17 5.800000000000007 
geomTransf Corotational 18 0.0 2.999999999979761 1.1019615310039722e-05 
element elasticBeamColumn 18 18 22 0.011600000000000013 7000000000.0 2464788732.3943663 0.00024389 0.0001627866666666667 0.0001627866666666667 18 5.800000000000007 
geomTransf Corotational 19 0.0 2.999999999979761 1.1019615310039722e-05 
element elasticBeamColumn 19 19 23 0.011600000000000013 7000000000.0 2464788732.3943663 0.00024389 0.0001627866666666667 0.0001627866666666667 19 5.800000000000007 
geomTransf Corotational 20 0.0 2.999999999979761 1.1019615310039722e-05 
element elasticBeamColumn 20 20 24 0.011600000000000013 7000000000.0 2464788732.3943663 0.00024389 0.0001627866666666667 0.0001627866666666667 20 5.800000000000007 
# ... 40 like lines cut
#
#--------------------------------------------------------------------------------- 
# Beam elements
#--------------------------------------------------------------------------------- 
#
geomTransf Corotational 41 5.142487144685203e-05 -13.999999999905553 0.0 
element elasticBeamColumn 41 2 4 0.007599999999999996 7000000000.0 2464788732.3943663 5.941894736842104e-05 6.350333333333331e-05 2.8203333333333328e-05 41 3.799999999999998 
geomTransf Corotational 42 9.999999999932538 3.673205103346574e-05 0.0 
element elasticBeamColumn 42 4 6 0.007599999999999996 7000000000.0 2464788732.3943663 5.941894736842104e-05 6.350333333333331e-05 2.8203333333333328e-05 42 3.799999999999998 
geomTransf Corotational 43 -5.142487144685203e-05 13.999999999905553 0.0 
element elasticBeamColumn 43 6 8 0.007599999999999996 7000000000.0 2464788732.3943663 5.941894736842104e-05 6.350333333333331e-05 2.8203333333333328e-05 43 3.799999999999998 
geomTransf Corotational 44 -9.999999999932538 -3.673205103346574e-05 0.0 
element elasticBeamColumn 44 8 2 0.007599999999999996 7000000000.0 2464788732.3943663 5.941894736842104e-05 6.350333333333331e-05 2.8203333333333328e-05 44 3.799999999999998 
geomTransf Corotational 45 5.142487144685203e-05 -13.999999999905553 0.0 
element elasticBeamColumn 45 9 10 0.007599999999999996 7000000000.0 2464788732.3943663 5.941894736842104e-05 6.350333333333331e-05 2.8203333333333328e-05 45 3.799999999999998 
geomTransf Corotational 46 9.999999999932538 3.673205103346574e-05 0.0 
element elasticBeamColumn 46 10 11 0.007599999999999996 7000000000.0 2464788732.3943663 5.941894736842104e-05 6.350333333333331e-05 2.8203333333333328e-05 46 3.799999999999998 
geomTransf Corotational 47 -5.142487144685203e-05 13.999999999905553 0.0 
element elasticBeamColumn 47 11 12 0.007599999999999996 7000000000.0 2464788732.3943663 5.941894736842104e-05 6.350333333333331e-05 2.8203333333333328e-05 47 3.799999999999998 
geomTransf Corotational 48 -9.999999999932538 -3.673205103346574e-05 0.0 
element elasticBeamColumn 48 12 9 0.007599999999999996 7000000000.0 2464788732.3943663 5.941894736842104e-05 6.350333333333331e-05 2.8203333333333328e-05 48 3.799999999999998 
geomTransf Corotational 49 5.142487144685203e-05 -13.999999999905553 0.0 
element elasticBeamColumn 49 13 14 0.007599999999999996 7000000000.0 2464788732.3943663 5.941894736842104e-05 6.350333333333331e-05 2.8203333333333328e-05 49 3.799999999999998 
geomTransf Corotational 50 9.999999999932538 3.673205103346574e-05 0.0 
element elasticBeamColumn 50 14 15 0.007599999999999996 7000000000.0 2464788732.3943663 5.941894736842104e-05 6.350333333333331e-05 2.8203333333333328e-05 50 3.799999999999998 
geomTransf Corotational 51 -5.142487144685203e-05 13.999999999905553 0.0 
element elasticBeamColumn 51 15 16 0.007599999999999996 7000000000.0 2464788732.3943663 5.941894736842104e-05 6.350333333333331e-05 2.8203333333333328e-05 51 3.799999999999998 
geomTransf Corotational 52 -9.999999999932538 -3.673205103346574e-05 0.0 
element elasticBeamColumn 52 16 13 0.007599999999999996 7000000000.0 2464788732.3943663 5.941894736842104e-05 6.350333333333331e-05 2.8203333333333328e-05 52 3.799999999999998 
geomTransf Corotational 53 5.142487144685203e-05 -13.999999999905553 0.0 
element elasticBeamColumn 53 17 18 0.007599999999999996 7000000000.0 2464788732.3943663 5.941894736842104e-05 6.350333333333331e-05 2.8203333333333328e-05 53 3.799999999999998 
geomTransf Corotational 54 9.999999999932538 3.673205103346574e-05 0.0 
element elasticBeamColumn 54 18 19 0.007599999999999996 7000000000.0 2464788732.3943663 5.941894736842104e-05 6.350333333333331e-05 2.8203333333333328e-05 54 3.799999999999998 
geomTransf Corotational 55 -5.142487144685203e-05 13.999999999905553 0.0 
element elasticBeamColumn 55 19 20 0.007599999999999996 7000000000.0 2464788732.3943663 5.941894736842104e-05 6.350333333333331e-05 2.8203333333333328e-05 55 3.799999999999998 
geomTransf Corotational 56 -9.999999999932538 -3.673205103346574e-05 0.0 
element elasticBeamColumn 56 20 17 0.007599999999999996 7000000000.0 2464788732.3943663 5.941894736842104e-05 6.350333333333331e-05 2.8203333333333328e-05 56 3.799999999999998 
geomTransf Corotational 57 5.142487144685203e-05 -13.999999999905553 0.0 
element elasticBeamColumn 57 21 22 0.007599999999999996 7000000000.0 2464788732.3943663 5.941894736842104e-05 6.350333333333331e-05 2.8203333333333328e-05 57 3.799999999999998 
geomTransf Corotational 58 9.999999999932538 3.673205103346574e-05 0.0 
element elasticBeamColumn 58 22 23 0.007599999999999996 7000000000.0 2464788732.3943663 5.941894736842104e-05 6.350333333333331e-05 2.8203333333333328e-05 58 3.799999999999998 
geomTransf Corotational 59 -5.142487144685203e-05 13.999999999905553 0.0 
element elasticBeamColumn 59 23 24 0.007599999999999996 7000000000.0 2464788732.3943663 5.941894736842104e-05 6.350333333333331e-05 2.8203333333333328e-05 59 3.799999999999998 
geomTransf Corotational 60 -9.999999999932538 -3.673205103346574e-05 0.0 
element elasticBeamColumn 60 24 21 0.007599999999999996 7000000000.0 2464788732.3943663 5.941894736842104e-05 6.350333333333331e-05 2.8203333333333328e-05 60 3.799999999999998 
# ... 40 like lines cut
#
#--------------------------------------------------------------------------------- 
# Beam elements
#--------------------------------------------------------------------------------- 
#
geomTransf Corotational 81 5.142487144685203e-05 -13.999999999905553 -3.0 
element elasticBeamColumn 81 1 4 0.0036000000000000016 7000000000.0 2464788732.3943663 7.290000000000002e-06 4.920000000000002e-06 4.920000000000002e-06 81 1.8000000000000007 
geomTransf Corotational 82 9.999999999932538 3.673205103346574e-05 3.0 
element elasticBeamColumn 82 4 5 0.0036000000000000016 7000000000.0 2464788732.3943663 7.290000000000002e-06 4.920000000000002e-06 4.920000000000002e-06 82 1.8000000000000007 
geomTransf Corotational 83 -5.142487144685203e-05 13.999999999905553 -3.0 
element elasticBeamColumn 83 5 8 0.0036000000000000016 7000000000.0 2464788732.3943663 7.290000000000002e-06 4.920000000000002e-06 4.920000000000002e-06 83 1.8000000000000007 
geomTransf Corotational 84 -9.999999999932538 -3.673205103346574e-05 3.0 
element elasticBeamColumn 84 8 1 0.0036000000000000016 7000000000.0 2464788732.3943663 7.290000000000002e-06 4.920000000000002e-06 4.920000000000002e-06 84 1.8000000000000007 
geomTransf Corotational 85 5.142487144685203e-05 -13.999999999905553 -3.0 
element elasticBeamColumn 85 2 10 0.0036000000000000016 7000000000.0 2464788732.3943663 7.290000000000002e-06 4.920000000000002e-06 4.920000000000002e-06 85 1.8000000000000007 
geomTransf Corotational 86 9.999999999932538 3.673205103346574e-05 3.0 
element elasticBeamColumn 86 10 6 0.0036000000000000016 7000000000.0 2464788732.3943663 7.290000000000002e-06 4.920000000000002e-06 4.920000000000002e-06 86 1.8000000000000007 
geomTransf Corotational 87 -5.142487144685203e-05 13.999999999905553 -3.0 
element elasticBeamColumn 87 6 12 0.0036000000000000016 7000000000.0 2464788732.3943663 7.290000000000002e-06 4.920000000000002e-06 4.920000000000002e-06 87 1.8000000000000007 
geomTransf Corotational 88 -9.999999999932538 -3.673205103346574e-05 3.0 
element elasticBeamColumn 88 12 2 0.0036000000000000016 7000000000.0 2464788732.3943663 7.290000000000002e-06 4.920000000000002e-06 4.920000000000002e-06 88 1.8000000000000007 
geomTransf Corotational 89 5.142487144685203e-05 -13.999999999905553 -3.0 
element elasticBeamColumn 89 9 14 0.0036000000000000016 7000000000.0 2464788732.3943663 7.290000000000002e-06 4.920000000000002e-06 4.920000000000002e-06 89 1.8000000000000007 
geomTransf Corotational 90 9.999999999932538 3.673205103346574e-05 3.0 
element elasticBeamColumn 90 14 11 0.0036000000000000016 7000000000.0 2464788732.3943663 7.290000000000002e-06 4.920000000000002e-06 4.920000000000002e-06 90 1.8000000000000007 
geomTransf Corotational 91 -5.142487144685203e-05 13.999999999905553 -3.0 
element elasticBeamColumn 91 11 16 0.0036000000000000016 7000000000.0 2464788732.3943663 7.290000000000002e-06 4.920000000000002e-06 4.920000000000002e-06 91 1.8000000000000007 
geomTransf Corotational 92 -9.999999999932538 -3.673205103346574e-05 3.0 
element elasticBeamColumn 92 16 9 0.0036000000000000016 7000000000.0 2464788732.3943663 7.290000000000002e-06 4.920000000000002e-06 4.920000000000002e-06 92 1.8000000000000007 
geomTransf Corotational 93 5.142487144685203e-05 -13.999999999905553 -3.0 
element elasticBeamColumn 93 13 18 0.0036000000000000016 7000000000.0 2464788732.3943663 7.290000000000002e-06 4.920000000000002e-06 4.920000000000002e-06 93 1.8000000000000007 
geomTransf Corotational 94 9.999999999932538 3.673205103346574e-05 3.0 
element elasticBeamColumn 94 18 15 0.0036000000000000016 7000000000.0 2464788732.3943663 7.290000000000002e-06 4.920000000000002e-06 4.920000000000002e-06 94 1.8000000000000007 
geomTransf Corotational 95 -5.142487144685203e-05 13.999999999905553 -3.0 
element elasticBeamColumn 95 15 20 0.0036000000000000016 7000000000.0 2464788732.3943663 7.290000000000002e-06 4.920000000000002e-06 4.920000000000002e-06 95 1.8000000000000007 
geomTransf Corotational 96 -9.999999999932538 -3.673205103346574e-05 3.0 
element elasticBeamColumn 96 20 13 0.0036000000000000016 7000000000.0 2464788732.3943663 7.290000000000002e-06 4.920000000000002e-06 4.920000000000002e-06 96 1.8000000000000007 
geomTransf Corotational 97 5.142487144685203e-05 -13.999999999905553 -3.0 
element elasticBeamColumn 97 17 22 0.0036000000000000016 7000000000.0 2464788732.3943663 7.290000000000002e-06 4.920000000000002e-06 4.920000000000002e-06 97 1.8000000000000007 
geomTransf Corotational 98 9.999999999932538 3.673205103346574e-05 3.0 
element elasticBeamColumn 98 22 19 0.0036000000000000016 7000000000.0 2464788732.3943663 7.290000000000002e-06 4.920000000000002e-06 4.920000000000002e-06 98 1.8000000000000007 
geomTransf Corotational 99 -5.142487144685203e-05 13.999999999905553 -3.0 
element elasticBeamColumn 99 19 24 0.0036000000000000016 7000000000.0 2464788732.3943663 7.290000000000002e-06 4.920000000000002e-06 4.920000000000002e-06 99 1.8000000000000007 
geomTransf Corotational 100 -9.999999999932538 -3.673205103346574e-05 3.0 
element elasticBeamColumn 100 24 17 0.0036000000000000016 7000000000.0 2464788732.3943663 7.290000000000002e-06 4.920000000000002e-06 4.920000000000002e-06 100 1.8000000000000007 
# ... 40 like lines cut
#
pattern Plain 1 "Linear" {
load 1 -1000 0 0 0 0 0
load 2 -1000 0 0 0 0 0
load 3 -1000 0 0 0 0 0
load 4 -1000 0 0 0 0 0
load 5 -1000 0 0 0 0 0
load 6 -1000 0 0 0 0 0
load 7 -1000 0 0 0 0 0
load 8 -1000 0 0 0 0 0
load 9 -1000 0 0 0 0 0
load 10 -1000 0 0 0 0 0
load 11 -1000 0 0 0 0 0
load 12 -1000 0 0 0 0 0
load 13 -1000 0 0 0 0 0
load 14 -1000 0 0 0 0 0
load 15 -1000 0 0 0 0 0
load 16 -1000 0 0 0 0 0
load 17 -1000 0 0 0 0 0
load 18 -1000 0 0 0 0 0
load 19 -1000 0 0 0 0 0
load 20 -1000 0 0 0 0 0
# ... 20 like lines cut
}
#
#
system BandSPD
numberer RCM
constraints Plain
integrator LoadControl 1.0
algorithm Linear
analysis Static
#
#
#--------------------------------------------------------------------------------- 
# Static shape recorders
#--------------------------------------------------------------------------------- 
#
recorder Node -file "/Users/time/Documents/UW/04_code/uw_opensees/uw_opensees/temp/Arch598_model_output/displacements.out" -load -nodeRange 1 44 -dof 1 2 3 disp
#
#
#
analyze 1
#
