#--------------------------------------------------------------------------------- 
# Heading
#--------------------------------------------------------------------------------- 
#
wipe
model basic -ndm 3 -ndf 6
#
logFile error.txt
#
#
#
#--------------------------------------------------------------------------------- 
# Nodes
#--------------------------------------------------------------------------------- 
#
node 1 0.0 0.0 0.0
node 2 10.0 0.0 0.0
node 3 10.0 8.0 0.0
node 4 0.0 8.0 0.0
node 5 5.0 2.4 1.0
node 6 7.0 4.0 1.0
node 7 5.0 5.6 1.0
node 8 3.0 4.0 1.0
node 9 5.0 4.0 1.0
node 10 0.39999999999966773 0.0 0.0
node 11 0.7999999999993285 0.0 0.0
node 12 1.1999999999990338 0.0 0.0
node 13 1.5999999999979928 0.0 0.0
node 14 1.9999999999968252 0.0 0.0
node 15 2.399999999995658 0.0 0.0
node 16 2.7999999999944905 0.0 0.0
node 17 3.199999999993323 0.0 0.0
node 18 3.5999999999921553 0.0 0.0
node 19 3.999999999991022 0.0 0.0
node 20 4.399999999991492 0.0 0.0
# ... 753 like lines cut
#
#
#--------------------------------------------------------------------------------- 
# Displacements
#--------------------------------------------------------------------------------- 
#
fix 1 1 1 1 1 1 1
fix 2 1 1 1 1 1 1
fix 3 1 1 1 1 1 1
fix 4 1 1 1 1 1 1
#
#
#--------------------------------------------------------------------------------- 
# Materials
#--------------------------------------------------------------------------------- 
#
nDMaterial ElasticIsotropic 1 30000000000.0 0.2 2400
#
#--------------------------------------------------------------------------------- 
# Shell sections
#--------------------------------------------------------------------------------- 
#
section ElasticMembranePlateSection 1 30000000000.0 0.2 0.2 2400
#
#
#--------------------------------------------------------------------------------- 
# Shell elements
#--------------------------------------------------------------------------------- 
#
element ShellDKGT 1 288 357 312 1 
element ShellDKGT 2 312 337 288 1 
element ShellDKGT 3 293 334 290 1 
element ShellDKGT 4 289 335 315 1 
element ShellDKGT 5 290 358 293 1 
element ShellDKGT 6 315 356 289 1 
element ShellDKGT 7 314 323 281 1 
element ShellDKGT 8 311 324 323 1 
element ShellDKGT 9 319 344 284 1 
element ShellDKGT 10 283 345 297 1 
element ShellDKGT 11 311 330 324 1 
element ShellDKGT 12 311 323 314 1 
element ShellDKGT 13 36 339 37 1 
element ShellDKGT 14 58 338 59 1 
element ShellDKGT 15 331 354 330 1 
element ShellDKGT 16 297 360 283 1 
element ShellDKGT 17 284 359 319 1 
element ShellDKGT 18 282 331 330 1 
element ShellDKGT 19 279 326 47 1 
element ShellDKGT 20 299 313 301 1 
# ... 1434 like lines cut
#
pattern Plain 1 "Linear" {
load 9 0 0 -1000 0 0 0
}
#
#
system BandSPD
numberer RCM
constraints Plain
integrator LoadControl 1.0
algorithm Linear
analysis Static
#
#
#--------------------------------------------------------------------------------- 
# Static shape recorders
#--------------------------------------------------------------------------------- 
#
recorder Node -file "/Users/time/Documents/UW/04_code/uw_opensees/uw_opensees/temp/opensees_shell_static_output/displacements.out" -load -nodeRange 1 773 -dof 1 2 3 disp
#
#
#
analyze 1
#
