#--------------------------------------------------------------------------------- 
# Heading
#--------------------------------------------------------------------------------- 
#
wipe
model basic -ndm 3 -ndf 6
#
logFile error.txt
#
#
#
#--------------------------------------------------------------------------------- 
# Nodes
#--------------------------------------------------------------------------------- 
#
node 1 0.0 0.0 0.0
node 2 10.0 0.0 0.0
node 3 10.0 8.0 0.0
node 4 0.0 8.0 0.0
node 5 5.0 2.4 1.0
node 6 7.0 4.0 1.0
node 7 5.0 5.6 1.0
node 8 3.0 4.0 1.0
node 9 5.0 4.0 1.0
node 10 0.499999999999549 0.0 0.0
node 11 0.9999999999991849 0.0 0.0
node 12 1.4999999999982787 0.0 0.0
node 13 1.9999999999968179 0.0 0.0
node 14 2.499999999995357 0.0 0.0
node 15 2.999999999993896 0.0 0.0
node 16 3.4999999999924354 0.0 0.0
node 17 3.999999999991009 0.0 0.0
node 18 4.499999999991629 0.0 0.0
node 19 4.999999999992388 0.0 0.0
node 20 5.499999999993147 0.0 0.0
# ... 496 like lines cut
#
#
#--------------------------------------------------------------------------------- 
# Displacements
#--------------------------------------------------------------------------------- 
#
fix 1 1 1 1 1 1 1
fix 2 1 1 1 1 1 1
fix 3 1 1 1 1 1 1
fix 4 1 1 1 1 1 1
fix 5 1 1 1 1 1 1
#
#
#--------------------------------------------------------------------------------- 
# Materials
#--------------------------------------------------------------------------------- 
#
nDMaterial ElasticIsotropic 1 30000000000.0 0.2 2400
#
#--------------------------------------------------------------------------------- 
# Shell sections
#--------------------------------------------------------------------------------- 
#
section ElasticMembranePlateSection 1 30000000000.0 0.2 0.2 2400
#
#
#--------------------------------------------------------------------------------- 
# Shell elements
#--------------------------------------------------------------------------------- 
#
element ShellDKGT 1 42 239 43 1 
element ShellDKGT 2 241 254 228 1 
element ShellDKGT 3 236 238 223 1 
element ShellDKGT 4 235 248 225 1 
element ShellDKGT 5 228 269 241 1 
element ShellDKGT 6 223 239 42 1 
element ShellDKGT 7 253 258 25 1 
element ShellDKGT 8 238 239 223 1 
element ShellDKGT 9 223 250 236 1 
element ShellDKGT 10 247 248 235 1 
element ShellDKGT 11 25 264 253 1 
element ShellDKGT 12 239 257 43 1 
element ShellDKGT 13 236 250 232 1 
element ShellDKGT 14 47 256 48 1 
element ShellDKGT 15 243 257 239 1 
element ShellDKGT 16 232 250 231 1 
element ShellDKGT 17 229 249 246 1 
element ShellDKGT 18 239 262 243 1 
element ShellDKGT 19 222 231 39 1 
element ShellDKGT 20 256 266 48 1 
# ... 938 like lines cut
#
pattern Plain 1 "Linear" {
load 1 0 0 -480.0 0 0 0
load 2 0 0 -480.0 0 0 0
load 3 0 0 -480.0 0 0 0
load 4 0 0 -480.0 0 0 0
load 5 0 0 -480.0 0 0 0
load 6 0 0 -480.0 0 0 0
load 7 0 0 -480.0 0 0 0
load 8 0 0 -480.0 0 0 0
load 9 0 0 -480.0 0 0 0
load 10 0 0 -480.0 0 0 0
load 11 0 0 -480.0 0 0 0
load 12 0 0 -480.0 0 0 0
load 13 0 0 -480.0 0 0 0
load 14 0 0 -480.0 0 0 0
load 15 0 0 -480.0 0 0 0
load 16 0 0 -480.0 0 0 0
load 17 0 0 -480.0 0 0 0
load 18 0 0 -480.0 0 0 0
load 19 0 0 -480.0 0 0 0
load 20 0 0 -480.0 0 0 0
# ... 640 like lines cut
}
#
#
system BandSPD
numberer RCM
constraints Plain
integrator LoadControl 1.0
algorithm Linear
analysis Static
#
#
#--------------------------------------------------------------------------------- 
# Static shape recorders
#--------------------------------------------------------------------------------- 
#
recorder Node -file "/Users/time/Documents/UW/04_code/uw_opensees/uw_opensees/temp/opensees_shell_static_output/displacements.out" -load -nodeRange 1 516 -dof 1 2 3 disp
#
#
#
analyze 1
#
